Version 4
SHEET 1 880 680
WIRE -368 -736 -864 -736
WIRE -864 -720 -864 -736
WIRE -368 -640 -368 -736
WIRE -864 -592 -864 -640
WIRE -768 -592 -864 -592
WIRE -624 -592 -688 -592
WIRE -432 -592 -624 -592
WIRE -864 -576 -864 -592
WIRE -624 -544 -624 -592
WIRE -1008 -528 -1040 -528
WIRE -368 -512 -368 -544
WIRE -304 -512 -368 -512
WIRE -176 -512 -224 -512
WIRE -128 -512 -176 -512
WIRE -32 -512 -48 -512
WIRE 176 -512 176 -576
WIRE 176 -512 -32 -512
WIRE -368 -496 -368 -512
WIRE -32 -496 -32 -512
WIRE -176 -480 -176 -512
WIRE -864 -400 -864 -480
FLAG -1120 -784 0
FLAG -1120 -816 +VCC
FLAG -1072 -528 0
FLAG -864 -800 +VCC
FLAG -624 -480 0
FLAG -368 -416 0
FLAG -176 -416 0
FLAG 176 -512 TO_CAMERA_ANALOGUE_INPUT
FLAG -864 -400 0
FLAG 176 -656 0
FLAG -32 -432 0
SYMBOL MiniSyms4\\voltage- -1120 -800 R0
WINDOW 123 0 0 Left 2
WINDOW 39 0 0 Left 2
SYMATTR InstName V2
SYMATTR Value 12
SYMBOL MiniSyms4\\voltage- -1056 -528 R90
WINDOW 3 11 11 Invisible 2
WINDOW 123 0 0 Left 2
WINDOW 39 0 0 Left 2
SYMATTR Value PULSE(3.3 0 0 0 0 0.08e-3 0.2e-3)
SYMATTR InstName V4
SYMBOL res -912 -544 R90
WINDOW 0 0 56 VBottom 2
WINDOW 3 32 56 VTop 2
SYMATTR InstName R7
SYMATTR Value 4.7k
SYMBOL npn -928 -576 R0
SYMATTR InstName Q1
SYMATTR Value BC847B
SYMBOL res -880 -736 R0
SYMATTR InstName R13
SYMATTR Value 4.7k
SYMBOL res -672 -608 R90
WINDOW 0 0 56 VBottom 2
WINDOW 3 32 56 VTop 2
SYMATTR InstName R12
SYMATTR Value 10k
SYMBOL cap -640 -544 R0
SYMATTR InstName C3
SYMATTR Value 1µ
SYMBOL res -384 -512 R0
SYMATTR InstName R2
SYMATTR Value 4.7k
SYMBOL npn -432 -640 R0
SYMATTR InstName Q3
SYMATTR Value BC847B
SYMBOL zener -160 -416 R180
WINDOW 0 -38 25 Left 2
WINDOW 3 -132 -2 Left 2
SYMATTR InstName D1
SYMATTR Value BZX84C10L
SYMATTR Type tvsdiode
SYMBOL res -208 -528 R90
WINDOW 0 0 56 VBottom 2
WINDOW 3 32 56 VTop 2
SYMATTR InstName R1
SYMATTR Value 220
SYMBOL res -32 -528 R90
WINDOW 0 0 56 VBottom 2
WINDOW 3 32 56 VTop 2
SYMATTR InstName R4
SYMATTR Value 100
SYMBOL LED -880 -800 R0
WINDOW 0 -34 21 Left 2
WINDOW 3 -117 48 Left 2
SYMATTR InstName D3
SYMATTR Value SFH4258S
SYMBOL res 160 -672 R0
SYMATTR InstName R3
SYMATTR Value 10k
SYMBOL cap -48 -496 R0
WINDOW 0 38 33 Left 2
WINDOW 3 39 60 Left 2
SYMATTR InstName C1
SYMATTR Value 100n
TEXT -688 -368 Left 2 !.tran 0.001 0.2
TEXT -1144 -584 Left 2 ;PWM from MCU
TEXT -192 -352 Left 2 ;10V Zenner to limit output voltage
TEXT -496 -792 Left 2 ;VCC = +12V
TEXT -784 -768 Left 2 ;LED to drop 2V
TEXT 240 -616 Left 2 ;Camera's Input
RECTANGLE Normal 464 -544 112 -704 2
