Version 4
SHEET 1 880 680
WIRE 544 -752 368 -752
WIRE 672 -736 608 -736
WIRE -864 -720 -864 -736
WIRE 544 -720 480 -720
WIRE -368 -640 -368 -800
WIRE -864 -592 -864 -640
WIRE -768 -592 -864 -592
WIRE -624 -592 -688 -592
WIRE -560 -592 -624 -592
WIRE -432 -592 -480 -592
WIRE 480 -592 480 -720
WIRE 544 -592 480 -592
WIRE 672 -592 672 -736
WIRE 672 -592 624 -592
WIRE -1200 -576 -1200 -656
WIRE -864 -576 -864 -592
WIRE 480 -560 480 -592
WIRE -624 -544 -624 -592
WIRE -1344 -528 -1376 -528
WIRE -1008 -528 -1040 -528
WIRE -368 -496 -368 -544
WIRE -1200 -400 -1200 -480
WIRE -992 -400 -1200 -400
WIRE -864 -400 -864 -480
WIRE -864 -400 -992 -400
WIRE -992 -272 -992 -400
WIRE -992 -256 -992 -272
FLAG -464 -192 0
FLAG -464 -224 +VCC
FLAG -1200 -736 +VCC
FLAG -1072 -528 0
FLAG -1408 -528 0
FLAG -992 -272 0
FLAG -864 -736 +VCC
FLAG -624 -480 0
FLAG 576 -704 +VCC
FLAG 576 -768 0
FLAG 336 -752 0
FLAG 480 -480 0
FLAG -368 -800 +VCC
FLAG -368 -416 0
SYMBOL MiniSyms4\\voltage- -464 -208 R0
WINDOW 123 0 0 Left 2
WINDOW 39 0 0 Left 2
SYMATTR InstName V2
SYMATTR Value 12
SYMBOL npn -1264 -576 R0
SYMATTR InstName Q2
SYMATTR Value BC547B
SYMBOL MiniSyms4\\voltage- -1056 -528 R90
WINDOW 3 11 11 Invisible 2
WINDOW 123 0 0 Left 2
WINDOW 39 0 0 Left 2
SYMATTR Value PULSE(3.3 0 0 0 0 0.1e-3 0.2e-3)
SYMATTR InstName V4
SYMBOL MiniSyms4\\voltage- -1392 -528 R90
WINDOW 3 11 11 Invisible 2
WINDOW 123 0 0 Left 2
WINDOW 39 0 0 Left 2
SYMATTR Value PULSE(0 3.3 0 0 0 0.1e-3 0.2e-3)
SYMATTR InstName V5
SYMBOL res -1248 -544 R90
WINDOW 0 0 56 VBottom 2
WINDOW 3 32 56 VTop 2
SYMATTR InstName R6
SYMATTR Value 4.7k
SYMBOL res -912 -544 R90
WINDOW 0 0 56 VBottom 2
WINDOW 3 32 56 VTop 2
SYMATTR InstName R7
SYMATTR Value 4.7k
SYMBOL res -1216 -752 R0
SYMATTR InstName R9
SYMATTR Value 1k
SYMBOL npn -928 -576 R0
SYMATTR InstName Q1
SYMATTR Value BC847B
SYMBOL res -880 -736 R0
SYMATTR InstName R13
SYMATTR Value 4.7k
SYMBOL res -672 -608 R90
WINDOW 0 0 56 VBottom 2
WINDOW 3 32 56 VTop 2
SYMATTR InstName R12
SYMATTR Value 10k
SYMBOL cap -640 -544 R0
SYMATTR InstName C3
SYMATTR Value 1µ
SYMBOL SBORKA\\OPamp\\TS951 576 -736 M180
SYMATTR InstName U4
SYMBOL MiniSyms4\\voltage- 352 -752 R90
WINDOW 3 11 11 Invisible 2
WINDOW 123 0 0 Left 2
WINDOW 39 0 0 Left 2
SYMATTR Value PULSE(3.3 0 0 0 0 0.1e-3 0.2e-3)
SYMATTR InstName V3
SYMBOL res 640 -608 R90
WINDOW 0 0 56 VBottom 2
WINDOW 3 32 56 VTop 2
SYMATTR InstName R14
SYMATTR Value 1.8k
SYMBOL res 496 -464 R180
WINDOW 0 36 76 Left 2
WINDOW 3 36 40 Left 2
SYMATTR InstName R15
SYMATTR Value 1k
SYMBOL res -384 -512 R0
SYMATTR InstName R2
SYMATTR Value 6.8k
SYMBOL npn -432 -640 R0
SYMATTR InstName Q3
SYMATTR Value BC847B
SYMBOL res -464 -608 R90
WINDOW 0 0 56 VBottom 2
WINDOW 3 32 56 VTop 2
SYMATTR InstName R3
SYMATTR Value 10k
TEXT -712 -152 Left 2 !.tran 0.001 0.04
TEXT -1144 -584 Left 2 ;PWM from MCU
