Version 4
SHEET 1 1380 680
WIRE 592 -48 432 -48
WIRE 128 -16 96 -16
WIRE 240 -16 208 -16
WIRE 432 48 432 -48
WIRE 480 48 432 48
WIRE 592 64 592 -48
WIRE 592 64 544 64
WIRE 768 64 592 64
WIRE 896 64 848 64
WIRE 240 80 240 -16
WIRE 272 80 240 80
WIRE 384 80 352 80
WIRE 480 80 384 80
WIRE 0 112 -16 112
WIRE 96 112 96 -16
WIRE 96 112 80 112
WIRE 128 112 96 112
WIRE 240 128 240 80
WIRE 240 128 192 128
WIRE 384 128 384 80
WIRE -112 144 -160 144
WIRE 128 144 -112 144
WIRE -160 160 -160 144
WIRE -160 224 -160 192
FLAG -64 32 0
FLAG -64 0 +12V
FLAG -112 144 MCU_PWM
FLAG 384 192 0
FLAG 512 32 +12V
FLAG 512 96 0
FLAG 160 96 +12V
FLAG 160 160 0
FLAG -160 224 0
FLAG -16 112 0
FLAG 896 64 0
SYMBOL MiniSyms4\\voltage- -64 16 R0
WINDOW 123 0 0 Left 2
WINDOW 39 0 0 Left 2
SYMATTR InstName V1
SYMATTR Value 12
SYMBOL res 368 64 R90
WINDOW 0 0 56 VBottom 2
WINDOW 3 32 56 VTop 2
SYMATTR InstName R1
SYMATTR Value 10k
SYMBOL cap 368 128 R0
SYMATTR InstName C1
SYMATTR Value 1µ
SYMBOL MiniSyms4\\voltage- -160 176 R0
WINDOW 3 11 11 Invisible 2
WINDOW 123 0 0 Left 2
WINDOW 39 0 0 Left 2
SYMATTR InstName V3
SYMATTR Value PULSE(0 3.3 0 0 0 0.19e-3 0.2e-3)
SYMBOL res 96 96 R90
WINDOW 0 -9 88 VBottom 2
WINDOW 3 -35 40 VTop 2
SYMATTR InstName R5
SYMATTR Value 10k
SYMBOL res 112 0 R270
WINDOW 0 32 56 VTop 2
WINDOW 3 0 56 VBottom 2
SYMATTR InstName R6
SYMATTR Value 22k
SYMBOL res 864 48 R90
WINDOW 0 0 56 VBottom 2
WINDOW 3 32 56 VTop 2
SYMATTR InstName R2
SYMATTR Value 1k
SYMBOL EXTRA\\ExtraOpamps\\LM324_NS 160 128 R0
SYMATTR InstName U3
SYMBOL EXTRA\\ExtraOpamps\\LM324_NS 512 64 R0
SYMATTR InstName U4
TEXT 314 248 Left 2 !.tran 0 0.04 0 0.002
TEXT 688 -32 Left 2 ;Camera Input
RECTANGLE Normal 960 144 688 -16 2
